modelo_bdgd2opendss/sub__5001462/5001992/RamaisBT_2023056072_5001992_------1-----.dss
New "Line.RBT_10013619770" phases=2 bus1="88949865512358-534.1.4" bus2="10013619770-534.1.4" linecode="107-42_2" length=0.015000000 units=km
New "Line.RBT_10001398588" phases=4 bus1="88949865512358-534.1.2.3.4" bus2="10001398588-534.1.2.3.4" linecode="129-71_4" length=0.015100000 units=km
New "Line.RBT_10015096236" phases=2 bus1="88949865512358-534.1.4" bus2="10015096236-534.1.4" linecode="107-42_2" length=0.015000000 units=km
New "Line.RBT_10005968362" phases=2 bus1="80491025271417.1.4" bus2="10005968362.1.4" linecode="107-42_2" length=0.015100000 units=km
New "Line.RBT_10015808171" phases=2 bus1="88949865512358-534.2.4" bus2="10015808171-534.2.4" linecode="107-42_2" length=0.015000000 units=km
New "Line.RBT_10012622859" phases=2 bus1="88949865512358-534.2.4" bus2="10012622859-534.2.4" linecode="107-42_2" length=0.015000000 units=km
New "Line.RBT_10016892052" phases=2 bus1="88949865512358-534.1.4" bus2="10016892052-534.1.4" linecode="107-42_2" length=0.015000000 units=km
New "Line.RBT_10012663563" phases=2 bus1="88949865512358-534.2.4" bus2="10012663563-534.2.4" linecode="107-42_2" length=0.015000000 units=km
New "Line.RBT_10002276702" phases=2 bus1="80487215271427.3.4" bus2="10002276702.3.4" linecode="107-42_2" length=0.015100000 units=km
New "Line.RBT_10014875010" phases=2 bus1="88949865512358-534.3.4" bus2="10014875010-534.3.4" linecode="107-42_2" length=0.015000000 units=km
New "Line.RBT_10016789065" phases=2 bus1="88949865512358-534.1.4" bus2="10016789065-534.1.4" linecode="107-42_2" length=0.015000000 units=km
New "Line.RBT_10008810344" phases=2 bus1="80460295270939.2.4" bus2="10008810344.2.4" linecode="127-71X_2" length=0.015100000 units=km
New "Line.RBT_10010561305" phases=4 bus1="88949865512358-534.1.2.3.4" bus2="10010561305-534.1.2.3.4" linecode="129-71_4" length=0.015100000 units=km
New "Line.RBT_10014723466" phases=2 bus1="88949865512358-534.2.4" bus2="10014723466-534.2.4" linecode="107-42_2" length=0.015000000 units=km
New "Line.RBT_10014871538" phases=4 bus1="88949865512358-534.1.2.3.4" bus2="10014871538-534.1.2.3.4" linecode="108-44_4" length=0.015000000 units=km
New "Line.RBT_10020037765" phases=4 bus1="88949865512358-534.1.2.3.4" bus2="10020037765-534.1.2.3.4" linecode="108-44_4" length=0.015000000 units=km
New "Line.RBT_10009194361" phases=2 bus1="80490405271425.1.4" bus2="10009194361.1.4" linecode="107-42X_2" length=0.015100000 units=km
New "Line.RBT_10009215016" phases=2 bus1="80538705272046.1.4" bus2="10009215016.1.4" linecode="107-42_2" length=0.015100000 units=km
New "Line.RBT_10012231060" phases=2 bus1="88949865512358-534.1.4" bus2="10012231060-534.1.4" linecode="107-42_2" length=0.015000000 units=km
New "Line.RBT_10009283399" phases=2 bus1="80487215271427.2.4" bus2="10009283399.2.4" linecode="107-42_2" length=0.015100000 units=km
New "Line.RBT_10014143427" phases=2 bus1="88949865512358-534.3.4" bus2="10014143427-534.3.4" linecode="107-42_2" length=0.015000000 units=km
New "Line.RBT_10013013414" phases=2 bus1="88949865512358-534.2.4" bus2="10013013414-534.2.4" linecode="107-42_2" length=0.015000000 units=km
New "Line.RBT_10013021662" phases=2 bus1="88949865512358-534.1.4" bus2="10013021662-534.1.4" linecode="107-42_2" length=0.015000000 units=km
New "Line.RBT_10002670966" phases=2 bus1="80487215271427.2.4" bus2="10002670966.2.4" linecode="107-42_2" length=0.015100000 units=km
New "Line.RBT_10022267865" phases=2 bus1="88949865512358-534.1.4" bus2="10022267865-534.1.4" linecode="107-42_2" length=0.015000000 units=km
New "Line.RBT_10021997169" phases=2 bus1="88949865512358-534.1.4" bus2="10021997169-534.1.4" linecode="107-42_2" length=0.015000000 units=km
New "Line.RBT_10000114080" phases=2 bus1="80491025271417.3.4" bus2="10000114080.3.4" linecode="107-42_2" length=0.015100000 units=km
New "Line.RBT_10019343513" phases=2 bus1="88949865512358-534.1.4" bus2="10019343513-534.1.4" linecode="CI-06_2" length=0.015100000 units=km
New "Line.RBT_10024003040" phases=2 bus1="88949865512358-534.1.4" bus2="10024003040-534.1.4" linecode="107-42_2" length=0.015000000 units=km
New "Line.RBT_10021784149" phases=2 bus1="80487365271427.2.4" bus2="10021784149.2.4" linecode="CI-06_2" length=0.015100000 units=km
New "Line.RBT_10014959761" phases=2 bus1="88949865512358-534.1.4" bus2="10014959761-534.1.4" linecode="107-42_2" length=0.015000000 units=km
New "Line.RBT_10015689652" phases=2 bus1="88949865512358-534.1.4" bus2="10015689652-534.1.4" linecode="107-42_2" length=0.015100000 units=km
New "Line.RBT_10016101837" phases=2 bus1="88949865512358-534.2.4" bus2="10016101837-534.2.4" linecode="107-42_2" length=0.015000000 units=km
New "Line.RBT_10016134379" phases=3 bus1="89190155520261.1.2.4" bus2="10016134379.1.2.4" linecode="108-43_3" length=0.015000000 units=km
New "Line.RBT_10021392038" phases=2 bus1="88949865512358-534.2.4" bus2="10021392038-534.2.4" linecode="107-42_2" length=0.015000000 units=km
New "Line.RBT_10023338375" phases=2 bus1="88949865512358-534.2.4" bus2="10023338375-534.2.4" linecode="107-42_2" length=0.015000000 units=km
New "Line.RBT_10024677670" phases=4 bus1="80461805270939.1.2.3.4" bus2="10024677670.1.2.3.4" linecode="129-71_4" length=0.015100000 units=km
New "Line.RBT_10013195377" phases=2 bus1="88949865512358-534.2.4" bus2="10013195377-534.2.4" linecode="107-42_2" length=0.015000000 units=km
New "Line.RBT_10013021859" phases=2 bus1="88949865512358-534.1.4" bus2="10013021859-534.1.4" linecode="107-42_2" length=0.015000000 units=km
New "Line.RBT_10019935070" phases=2 bus1="88949865512358-534.3.4" bus2="10019935070-534.3.4" linecode="107-42_2" length=0.015000000 units=km
New "Line.RBT_10019459465" phases=2 bus1="80487215271427.1.4" bus2="10019459465.1.4" linecode="107-42_2" length=0.015100000 units=km
New "Line.RBT_10013022995" phases=2 bus1="88949865512358-534.1.4" bus2="10013022995-534.1.4" linecode="107-42_2" length=0.015000000 units=km
New "Line.RBT_10029147644" phases=2 bus1="88949865512358-534.1.4" bus2="10029147644-534.1.4" linecode="107-42_2" length=0.015000000 units=km
New "Line.RBT_10013063683" phases=2 bus1="88949865512358-534.3.4" bus2="10013063683-534.3.4" linecode="107-42_2" length=0.015000000 units=km
New "Line.RBT_10016636412" phases=2 bus1="88949865512358-534.1.4" bus2="10016636412-534.1.4" linecode="CI-06_2" length=0.015100000 units=km
New "Line.RBT_10019459503" phases=2 bus1="80487215271427.2.4" bus2="10019459503.2.4" linecode="107-42_2" length=0.015100000 units=km
New "Line.RBT_10013206239" phases=2 bus1="88949865512358-534.2.4" bus2="10013206239-534.2.4" linecode="107-42_2" length=0.015000000 units=km
New "Line.RBT_10016093710" phases=3 bus1="89190155520261.1.2.4" bus2="10016093710.1.2.4" linecode="108-43_3" length=0.015000000 units=km
New "Line.RBT_10024699738" phases=2 bus1="88949865512358-534.2.4" bus2="10024699738-534.2.4" linecode="CI-06_2" length=0.015100000 units=km
New "Line.RBT_10016431489" phases=2 bus1="88949865512358-534.1.4" bus2="10016431489-534.1.4" linecode="107-42_2" length=0.015000000 units=km
New "Line.RBT_10016100571" phases=3 bus1="89190155520261.3.1.4" bus2="10016100571.3.1.4" linecode="108-43_3" length=0.015000000 units=km
New "Line.RBT_10024425921" phases=2 bus1="80538705272046.1.4" bus2="10024425921.1.4" linecode="107-42_2" length=0.015000000 units=km
New "Line.RBT_10024071330" phases=4 bus1="88949865512358-534.1.2.3.4" bus2="10024071330-534.1.2.3.4" linecode="108-44_4" length=0.015000000 units=km
New "Line.RBT_10017631821" phases=2 bus1="88949865512358-534.2.4" bus2="10017631821-534.2.4" linecode="107-42_2" length=0.015000000 units=km
New "Line.RBT_10008291690" phases=4 bus1="88949865512358-534.1.2.3.4" bus2="10008291690-534.1.2.3.4" linecode="108-44_4" length=0.015100000 units=km
New "Line.RBT_10013195350" phases=2 bus1="88949865512358-534.2.4" bus2="10013195350-534.2.4" linecode="107-42_2" length=0.015000000 units=km
New "Line.RBT_10013098711" phases=2 bus1="88949865512358-534.2.4" bus2="10013098711-534.2.4" linecode="107-42_2" length=0.015000000 units=km
New "Line.RBT_10018754030" phases=2 bus1="88949865512358-534.1.4" bus2="10018754030-534.1.4" linecode="107-42_2" length=0.015000000 units=km
New "Line.RBT_10029143002" phases=2 bus1="88949865512358-534.3.4" bus2="10029143002-534.3.4" linecode="107-42_2" length=0.015000000 units=km
New "Line.RBT_10014117574" phases=2 bus1="88949865512358-534.1.4" bus2="10014117574-534.1.4" linecode="107-42_2" length=0.015000000 units=km
New "Line.RBT_10016521801" phases=2 bus1="88949865512358-534.3.4" bus2="10016521801-534.3.4" linecode="107-42_2" length=0.015000000 units=km
New "Line.RBT_10018753963" phases=2 bus1="88949865512358-534.1.4" bus2="10018753963-534.1.4" linecode="107-42_2" length=0.015000000 units=km
New "Line.RBT_10026498268" phases=2 bus1="88949865512358-534.2.4" bus2="10026498268-534.2.4" linecode="107-42_2" length=0.015000000 units=km
New "Line.RBT_10030373768" phases=2 bus1="88949865512358-534.2.4" bus2="10030373768-534.2.4" linecode="107-42_2" length=0.015000000 units=km
New "Line.RBT_10013290345" phases=2 bus1="88949865512358-534.2.4" bus2="10013290345-534.2.4" linecode="107-42_2" length=0.015000000 units=km
New "Line.RBT_10031477893" phases=2 bus1="80538705272046.1.4" bus2="10031477893.1.4" linecode="107-42_2" length=0.015100000 units=km
New "Line.RBT_10015448060" phases=2 bus1="88949865512358-534.1.4" bus2="10015448060-534.1.4" linecode="107-42_2" length=0.015000000 units=km
New "Line.RBT_10016398325" phases=4 bus1="88949865512358-534.1.2.3.4" bus2="10016398325-534.1.2.3.4" linecode="108-44_4" length=0.015000000 units=km
New "Line.RBT_10026804326" phases=2 bus1="90939135271427.3.4" bus2="10026804326.3.4" linecode="108-26_2" length=0.015100000 units=km
New "Line.RBT_10018584045" phases=4 bus1="88949865512358-534.1.2.3.4" bus2="10018584045-534.1.2.3.4" linecode="108-44_4" length=0.015100000 units=km
New "Line.RBT_10015938156" phases=2 bus1="88949865512358-534.1.4" bus2="10015938156-534.1.4" linecode="107-42_2" length=0.015000000 units=km
New "Line.RBT_10013450083" phases=2 bus1="88949865512358-534.3.4" bus2="10013450083-534.3.4" linecode="107-42_2" length=0.015000000 units=km
New "Line.RBT_10015229643" phases=2 bus1="88949865512358-534.1.4" bus2="10015229643-534.1.4" linecode="107-42_2" length=0.015000000 units=km
New "Line.RBT_10015627096" phases=2 bus1="88949865512358-534.3.4" bus2="10015627096-534.3.4" linecode="107-42_2" length=0.015000000 units=km
New "Line.RBT_10575613" phases=2 bus1="80490125271425.3.4" bus2="10575613.3.4" linecode="107-42_2" length=0.015100000 units=km
New "Line.RBT_10571164" phases=4 bus1="80487205271427.1.2.3.4" bus2="10571164.1.2.3.4" linecode="108-44_4" length=0.015100000 units=km
New "Line.RBT_10571462" phases=4 bus1="80487205271427.1.2.3.4" bus2="10571462.1.2.3.4" linecode="108-44_4" length=0.015100000 units=km
New "Line.RBT_10029142928" phases=2 bus1="88949865512358-534.2.4" bus2="10029142928-534.2.4" linecode="107-42_2" length=0.015000000 units=km
New "Line.RBT_10017557931" phases=3 bus1="89190155520261.1.2.4" bus2="10017557931.1.2.4" linecode="108-43_3" length=0.015000000 units=km
New "Line.RBT_10028543201" phases=2 bus1="88949865512358-534.1.4" bus2="10028543201-534.1.4" linecode="107-42_2" length=0.015000000 units=km
New "Line.RBT_10571190" phases=4 bus1="80487205271427.1.2.3.4" bus2="10571190.1.2.3.4" linecode="108-44_4" length=0.015100000 units=km
New "Line.RBT_10576228" phases=2 bus1="80490405271425.3.4" bus2="10576228.3.4" linecode="107-42_2" length=0.015100000 units=km
New "Line.RBT_10063791" phases=4 bus1="80462585270939.1.2.3.4" bus2="10063791.1.2.3.4" linecode="108-44_4" length=0.015100000 units=km
New "Line.RBT_10576101" phases=2 bus1="80490125271425.3.4" bus2="10576101.3.4" linecode="107-42_2" length=0.015100000 units=km
New "Line.RBT_10576125" phases=2 bus1="80490125271425.2.4" bus2="10576125.2.4" linecode="107-42_2" length=0.015100000 units=km
New "Line.RBT_11496563" phases=4 bus1="88949865512358-534.1.2.3.4" bus2="11496563-534.1.2.3.4" linecode="108-44_4" length=0.015100000 units=km
New "Line.RBT_10572429" phases=2 bus1="80491455271501.3.4" bus2="10572429.3.4" linecode="107-42_2" length=0.015100000 units=km
New "Line.RBT_10575625" phases=2 bus1="80490125271425.1.4" bus2="10575625.1.4" linecode="107-42_2" length=0.015100000 units=km
New "Line.RBT_10572200" phases=2 bus1="80491415271501.3.4" bus2="10572200.3.4" linecode="107-42_2" length=0.015100000 units=km
New "Line.RBT_10013497519" phases=2 bus1="88949865512358-534.1.4" bus2="10013497519-534.1.4" linecode="107-42_2" length=0.015000000 units=km
New "Line.RBT_10015967806" phases=2 bus1="88949865512358-534.1.4" bus2="10015967806-534.1.4" linecode="107-42_2" length=0.015000000 units=km
New "Line.RBT_10575601" phases=2 bus1="80490125271425.3.4" bus2="10575601.3.4" linecode="107-42_2" length=0.015100000 units=km
New "Line.RBT_10524423" phases=2 bus1="80462595270939.1.4" bus2="10524423.1.4" linecode="107-42X_2" length=0.015100000 units=km
New "Line.RBT_10524435" phases=2 bus1="80460305270939.1.4" bus2="10524435.1.4" linecode="107-42_2" length=0.015100000 units=km
New "Line.RBT_10020614207" phases=2 bus1="88949865512358-534.3.4" bus2="10020614207-534.3.4" linecode="107-42_2" length=0.015000000 units=km
New "Line.RBT_10030647078" phases=2 bus1="88949865512358-534.1.4" bus2="10030647078-534.1.4" linecode="107-42_2" length=0.015000000 units=km
New "Line.RBT_10524459" phases=2 bus1="80462595270939.2.4" bus2="10524459.2.4" linecode="107-42X_2" length=0.015100000 units=km
New "Line.RBT_10524393" phases=2 bus1="80460305270939.1.4" bus2="10524393.1.4" linecode="107-42_2" length=0.015100000 units=km
New "Line.RBT_10028697306" phases=2 bus1="88949865512358-534.3.4" bus2="10028697306-534.3.4" linecode="107-42_2" length=0.015000000 units=km
New "Line.RBT_12047508" phases=4 bus1="80450025270879.1.2.3.4" bus2="12047508.1.2.3.4" linecode="109-44_4" length=0.015100000 units=km
New "Line.RBT_12572196" phases=2 bus1="80491455271501.1.4" bus2="12572196.1.4" linecode="107-42_2" length=0.015100000 units=km
New "Line.RBT_11524730" phases=2 bus1="80460305270939.3.4" bus2="11524730.3.4" linecode="107-42_2" length=0.015100000 units=km
New "Line.RBT_10019937464" phases=2 bus1="88949865512358-534.3.4" bus2="10019937464-534.3.4" linecode="107-42_2" length=0.015000000 units=km
New "Line.RBT_11193268" phases=4 bus1="80450835270879.1.2.3.4" bus2="11193268.1.2.3.4" linecode="129-71_4" length=0.015100000 units=km
New "Line.RBT_10029990716" phases=2 bus1="88949865512358-534.2.4" bus2="10029990716-534.2.4" linecode="107-42_2" length=0.015000000 units=km
New "Line.RBT_10032758357" phases=2 bus1="88949865512358-534.1.4" bus2="10032758357-534.1.4" linecode="107-42_2" length=0.015000000 units=km
New "Line.RBT_13987720" phases=2 bus1="80460305270939.2.4" bus2="13987720.2.4" linecode="107-42_2" length=0.015100000 units=km
New "Line.RBT_10571176" phases=4 bus1="80487205271427.1.2.3.4" bus2="10571176.1.2.3.4" linecode="108-44_4" length=0.015100000 units=km
New "Line.RBT_12564291" phases=4 bus1="80461805270939.1.2.3.4" bus2="12564291.1.2.3.4" linecode="45-44B_4" length=0.015100000 units=km
New "Line.RBT_13475903" phases=4 bus1="88949865512358-534.1.2.3.4" bus2="13475903-534.1.2.3.4" linecode="110-44_4" length=0.015100000 units=km
New "Line.RBT_10497171" phases=2 bus1="80450025270879.1.4" bus2="10497171.1.4" linecode="107-42_2" length=0.015100000 units=km
New "Line.RBT_13488790" phases=2 bus1="80450025270879.3.4" bus2="13488790.3.4" linecode="107-42_2" length=0.015100000 units=km
New "Line.RBT_14984945" phases=2 bus1="80491415271501.3.4" bus2="14984945.3.4" linecode="107-42_2" length=0.015100000 units=km
New "Line.RBT_10497900" phases=4 bus1="80450835270879.1.2.3.4" bus2="10497900.1.2.3.4" linecode="108-44_4" length=0.015100000 units=km
New "Line.RBT_10524411" phases=3 bus1="80460305270939.1.2.4" bus2="10524411.1.2.4" linecode="108-43_3" length=0.015100000 units=km
New "Line.RBT_10576113" phases=2 bus1="80490125271425.2.4" bus2="10576113.2.4" linecode="107-42_2" length=0.015100000 units=km
New "Line.RBT_10572193" phases=2 bus1="80491415271501.3.4" bus2="10572193.3.4" linecode="107-42_2" length=0.015100000 units=km
New "Line.RBT_10572430" phases=2 bus1="80491455271501.1.4" bus2="10572430.1.4" linecode="107-42_2" length=0.015100000 units=km
New "Line.RBT_15274998" phases=4 bus1="80490405271425.1.2.3.4" bus2="15274998.1.2.3.4" linecode="45-44B_4" length=0.015100000 units=km
New "Line.RBT_10572181" phases=2 bus1="80491415271501.1.4" bus2="10572181.1.4" linecode="107-42_2" length=0.015100000 units=km
New "Line.RBT_11259966" phases=2 bus1="80450835270879.3.4" bus2="11259966.3.4" linecode="107-42_2" length=0.015100000 units=km
New "Line.RBT_10524447" phases=2 bus1="80462595270939.1.4" bus2="10524447.1.4" linecode="107-42X_2" length=0.015100000 units=km
New "Line.RBT_13506031" phases=4 bus1="88949865512358-534.1.2.3.4" bus2="13506031-534.1.2.3.4" linecode="110-44_4" length=0.015100000 units=km
New "Line.RBT_14344105" phases=4 bus1="88949865512358-534.1.2.3.4" bus2="14344105-534.1.2.3.4" linecode="110-44_4" length=0.015100000 units=km
New "Line.RBT_16399687" phases=4 bus1="88949865512358-534.1.2.3.4" bus2="16399687-534.1.2.3.4" linecode="108-44_4" length=0.015000000 units=km
New "Line.RBT_16104389" phases=4 bus1="80462575270939.1.2.3.4" bus2="16104389.1.2.3.4" linecode="108-44_4" length=0.015100000 units=km
New "Line.RBT_15472449" phases=2 bus1="80450835270879.3.4" bus2="15472449.3.4" linecode="107-42_2" length=0.015100000 units=km
New "Line.RBT_14343230" phases=4 bus1="88949865512358-534.1.2.3.4" bus2="14343230-534.1.2.3.4" linecode="110-44_4" length=0.015100000 units=km
New "Line.RBT_15599395" phases=2 bus1="80490125271425.2.4" bus2="15599395.2.4" linecode="107-42_2" length=0.015100000 units=km
New "Line.RBT_12163314" phases=4 bus1="80462575270939.1.2.3.4" bus2="12163314.1.2.3.4" linecode="109-44_4" length=0.015100000 units=km
New "Line.RBT_11857328" phases=2 bus1="80538705272046.1.4" bus2="11857328.1.4" linecode="107-42_2" length=0.015100000 units=km
New "Line.RBT_16133560" phases=2 bus1="80538705272046.1.4" bus2="16133560.1.4" linecode="107-42_2" length=0.015100000 units=km
New "Line.RBT_10577543" phases=4 bus1="80486775271506.1.2.3.4" bus2="10577543.1.2.3.4" linecode="45-44B_4" length=0.015000000 units=km
New "Line.RBT_14343253" phases=4 bus1="88949865512358-534.1.2.3.4" bus2="14343253-534.1.2.3.4" linecode="108-44_4" length=0.015100000 units=km
New "Line.RBT_16335089" phases=4 bus1="88949865512358-534.1.2.3.4" bus2="16335089-534.1.2.3.4" linecode="108-44_4" length=0.015000000 units=km
New "Line.RBT_14342558" phases=4 bus1="88949865512358-534.1.2.3.4" bus2="14342558-534.1.2.3.4" linecode="110-44_4" length=0.015100000 units=km
New "Line.RBT_16343979" phases=4 bus1="88949865512358-534.1.2.3.4" bus2="16343979-534.1.2.3.4" linecode="108-44_4" length=0.015000000 units=km
New "Line.RBT_17292050" phases=2 bus1="80497555271453.1.4" bus2="17292050.1.4" linecode="107-42_2" length=0.015100000 units=km
New "Line.RBT_14665906" phases=2 bus1="88949865512358-534.1.4" bus2="14665906-534.1.4" linecode="107-42_2" length=0.015100000 units=km
New "Line.RBT_10006111350" phases=2 bus1="80539475272045.3.4" bus2="10006111350.3.4" linecode="128-42X_2" length=0.015100000 units=km
New "Line.RBT_10011701208" phases=2 bus1="80464855270925.1.4" bus2="10011701208.1.4" linecode="127-71X_2" length=0.015100000 units=km
New "Line.RBT_10008070499" phases=2 bus1="86967755445461-423.3.4" bus2="10008070499-423.3.4" linecode="107-42_2" length=0.015000000 units=km
New "Line.RBT_10006730513" phases=2 bus1="86967755445461-423.1.4" bus2="10006730513-423.1.4" linecode="107-42_2" length=0.015000000 units=km
New "Line.RBT_10013141587" phases=2 bus1="88949865512358-534.1.4" bus2="10013141587-534.1.4" linecode="107-42_2" length=0.015000000 units=km
New "Line.RBT_10012497" phases=4 bus1="80453595679403.1.2.3.4" bus2="10012497.1.2.3.4" linecode="108-44_4" length=0.015100000 units=km
New "Line.RBT_10021558084" phases=2 bus1="80464675270929.3.4" bus2="10021558084.3.4" linecode="128-42X_2" length=0.015100000 units=km
New "Line.RBT_10008329484" phases=2 bus1="86967755445461-423.2.4" bus2="10008329484-423.2.4" linecode="107-42_2" length=0.015000000 units=km
New "Line.RBT_10004969560" phases=2 bus1="86967755445461-423.1.4" bus2="10004969560-423.1.4" linecode="107-42_2" length=0.015000000 units=km
New "Line.RBT_10008998190" phases=2 bus1="86967755445461-423.1.4" bus2="10008998190-423.1.4" linecode="107-42_2" length=0.015000000 units=km
New "Line.RBT_10006735434" phases=2 bus1="86967755445461-423.1.4" bus2="10006735434-423.1.4" linecode="107-42_2" length=0.015000000 units=km
New "Line.RBT_13654536" phases=2 bus1="80464505270929.2.4" bus2="13654536.2.4" linecode="107-42_2" length=0.015100000 units=km
New "Line.RBT_10001532594" phases=2 bus1="80463165270941.3.4" bus2="10001532594.3.4" linecode="107-42_2" length=0.015100000 units=km
New "Line.RBT_10010075524" phases=2 bus1="86967755445461-423.3.4" bus2="10010075524-423.3.4" linecode="107-42_2" length=0.015000000 units=km
New "Line.RBT_10001038239" phases=2 bus1="80538595272045.1.4" bus2="10001038239.1.4" linecode="CI-06_2" length=0.015100000 units=km
New "Line.RBT_10001032290" phases=4 bus1="80466065270929.1.2.3.4" bus2="10001032290.1.2.3.4" linecode="129-71_4" length=0.015100000 units=km
New "Line.RBT_13659820" phases=2 bus1="80464505270929.1.4" bus2="13659820.1.4" linecode="107-42_2" length=0.015100000 units=km
New "Line.RBT_10005367083" phases=2 bus1="86967755445461-423.1.4" bus2="10005367083-423.1.4" linecode="107-42_2" length=0.015000000 units=km
New "Line.RBT_10011281934" phases=2 bus1="80495975271447.3.4" bus2="10011281934.3.4" linecode="CI-06_2" length=0.015100000 units=km
New "Line.RBT_10003860238" phases=2 bus1="86724535440097.3.4" bus2="10003860238.3.4" linecode="107-42_2" length=0.015000000 units=km
New "Line.RBT_10006276510" phases=2 bus1="86967755445461-423.2.4" bus2="10006276510-423.2.4" linecode="107-42_2" length=0.015000000 units=km
New "Line.RBT_10006843954" phases=2 bus1="80538595272045.1.4" bus2="10006843954.1.4" linecode="CI-06_2" length=0.015100000 units=km
New "Line.RBT_10004758810" phases=4 bus1="86967755445461-423.1.2.3.4" bus2="10004758810-423.1.2.3.4" linecode="108-44_4" length=0.015000000 units=km
New "Line.RBT_13659248" phases=2 bus1="80459975270937.3.4" bus2="13659248.3.4" linecode="107-42_2" length=0.015100000 units=km
New "Line.RBT_10009580512" phases=3 bus1="80495645271467.3.1.4" bus2="10009580512.3.1.4" linecode="108-43X_3" length=0.015100000 units=km
New "Line.RBT_10006885509" phases=2 bus1="80490445271425.3.4" bus2="10006885509.3.4" linecode="107-42_2" length=0.015100000 units=km
New "Line.RBT_10012051770" phases=2 bus1="80464345270925.2.4" bus2="10012051770.2.4" linecode="CI-06_2" length=0.015100000 units=km
New "Line.RBT_10012347963" phases=2 bus1="80490255271425.3.4" bus2="10012347963.3.4" linecode="CI-06_2" length=0.015100000 units=km
New "Line.RBT_10013140807" phases=2 bus1="88949865512358-534.3.4" bus2="10013140807-534.3.4" linecode="107-42_2" length=0.015000000 units=km
New "Line.RBT_10008943018" phases=2 bus1="80539455272045.1.4" bus2="10008943018.1.4" linecode="128-42X_2" length=0.015100000 units=km
New "Line.RBT_10011643267" phases=2 bus1="86967755445461-423.2.4" bus2="10011643267-423.2.4" linecode="107-42_2" length=0.015000000 units=km
New "Line.RBT_10013290701" phases=2 bus1="88949865512358-534.2.4" bus2="10013290701-534.2.4" linecode="107-42_2" length=0.015000000 units=km
New "Line.RBT_10007485431" phases=2 bus1="86967755445461-423.3.4" bus2="10007485431-423.3.4" linecode="107-42_2" length=0.015000000 units=km
New "Line.RBT_10008190230" phases=2 bus1="86967755445461-423.2.4" bus2="10008190230-423.2.4" linecode="107-42_2" length=0.015000000 units=km
New "Line.RBT_13722153" phases=2 bus1="80463005270937.2.4" bus2="13722153.2.4" linecode="107-42_2" length=0.015100000 units=km
New "Line.RBT_10003623880" phases=2 bus1="80459945270937.1.4" bus2="10003623880.1.4" linecode="CI-06_2" length=0.015100000 units=km
New "Line.RBT_10004172394" phases=2 bus1="86724535440097.3.4" bus2="10004172394.3.4" linecode="107-42_2" length=0.015000000 units=km
New "Line.RBT_10002601719" phases=2 bus1="80484915271489.1.4" bus2="10002601719.1.4" linecode="CI-06_2" length=0.015100000 units=km
New "Line.RBT_10006256404" phases=2 bus1="86967755445461-423.1.4" bus2="10006256404-423.1.4" linecode="107-42_2" length=0.015000000 units=km
New "Line.RBT_10013619797" phases=2 bus1="88949865512358-534.1.4" bus2="10013619797-534.1.4" linecode="107-42_2" length=0.015000000 units=km
New "Line.RBT_10021686864" phases=2 bus1="80538595272045.1.4" bus2="10021686864.1.4" linecode="CI-06_2" length=0.015100000 units=km
New "Line.RBT_10002601751" phases=2 bus1="80484915271489.3.4" bus2="10002601751.3.4" linecode="CI-06_2" length=0.015100000 units=km
New "Line.RBT_10001382193" phases=2 bus1="80490975271417.3.4" bus2="10001382193.3.4" linecode="107-42X_2" length=0.015100000 units=km
New "Line.RBT_10007445715" phases=2 bus1="86967755445461-423.1.4" bus2="10007445715-423.1.4" linecode="107-42_2" length=0.015000000 units=km
New "Line.RBT_10004822941" phases=2 bus1="80464725270929.1.4" bus2="10004822941.1.4" linecode="127-71X_2" length=0.015100000 units=km
New "Line.RBT_13818351" phases=4 bus1="80538875272045.1.2.3.4" bus2="13818351.1.2.3.4" linecode="110-44_4" length=0.015100000 units=km
New "Line.RBT_10004360662" phases=2 bus1="80464715270929.2.4" bus2="10004360662.2.4" linecode="128-42X_2" length=0.015100000 units=km
New "Line.RBT_10012360897" phases=2 bus1="80490255271425.1.4" bus2="10012360897.1.4" linecode="CI-06_2" length=0.015100000 units=km
New "Line.RBT_10009609618" phases=2 bus1="86967755445461-423.3.4" bus2="10009609618-423.3.4" linecode="107-42_2" length=0.015000000 units=km
New "Line.RBT_10007376780" phases=2 bus1="86967755445461-423.1.4" bus2="10007376780-423.1.4" linecode="107-42_2" length=0.015000000 units=km
New "Line.RBT_10006347590" phases=2 bus1="86967755445461-423.2.4" bus2="10006347590-423.2.4" linecode="107-42_2" length=0.015000000 units=km
New "Line.RBT_10005392851" phases=2 bus1="86967755445461-423.3.4" bus2="10005392851-423.3.4" linecode="107-42_2" length=0.015000000 units=km
New "Line.RBT_10001038212" phases=2 bus1="80538595272045.2.4" bus2="10001038212.2.4" linecode="CI-06_2" length=0.015100000 units=km
New "Line.RBT_10010496422" phases=2 bus1="86967755445461-423.2.4" bus2="10010496422-423.2.4" linecode="107-42_2" length=0.015000000 units=km
New "Line.RBT_10000045720" phases=2 bus1="80495595271467.1.4" bus2="10000045720.1.4" linecode="CI-06_2" length=0.015100000 units=km
New "Line.RBT_10009399222" phases=2 bus1="86967755445461-423.2.4" bus2="10009399222-423.2.4" linecode="107-42_2" length=0.015000000 units=km
New "Line.RBT_10009399249" phases=2 bus1="86967755445461-423.2.4" bus2="10009399249-423.2.4" linecode="107-42_2" length=0.015000000 units=km
New "Line.RBT_10005569441" phases=2 bus1="80494095271495.1.4" bus2="10005569441.1.4" linecode="CI-06_2" length=0.015100000 units=km
New "Line.RBT_10008068583" phases=2 bus1="80538595272045.1.4" bus2="10008068583.1.4" linecode="CI-06_2" length=0.015100000 units=km
New "Line.RBT_10013211186" phases=2 bus1="88949865512358-534.1.4" bus2="10013211186-534.1.4" linecode="107-42_2" length=0.015000000 units=km
New "Line.RBT_10006727687" phases=2 bus1="86967755445461-423.1.4" bus2="10006727687-423.1.4" linecode="107-42_2" length=0.015000000 units=km
...
